Version 4
SHEET 1 1188 680
WIRE 496 -48 144 -48
WIRE 496 -16 496 -48
WIRE 144 32 144 -48
WIRE 144 32 -240 32
WIRE 432 32 352 32
WIRE -240 128 -240 32
WIRE 144 128 144 32
WIRE 112 144 -80 144
WIRE 352 160 352 32
WIRE 352 160 176 160
WIRE 384 160 352 160
WIRE 496 160 496 80
WIRE 496 160 464 160
WIRE 608 160 496 160
WIRE 736 160 608 160
WIRE 864 160 736 160
WIRE 112 176 -16 176
WIRE -16 224 -16 176
WIRE 496 240 496 160
WIRE 736 240 736 160
WIRE -240 272 -240 208
WIRE 144 272 144 192
WIRE 352 288 352 160
WIRE 432 288 352 288
WIRE -16 336 -16 304
WIRE -80 384 -80 144
WIRE -16 384 -80 384
WIRE 128 384 -16 384
WIRE 608 384 608 160
WIRE 608 384 208 384
WIRE 736 384 736 320
WIRE -16 432 -16 384
WIRE 496 432 496 336
WIRE -16 544 -16 512
FLAG 144 272 0
FLAG -240 272 0
FLAG -16 336 0
FLAG -16 544 0
FLAG 864 160 Out
IOPIN 864 160 Out
FLAG 496 432 0
FLAG 736 384 0
SYMBOL Opamps\\UniversalOpamp2 144 160 R0
SYMATTR InstName U1
SYMBOL voltage -240 112 R0
WINDOW 123 0 0 Left 2
WINDOW 39 0 0 Left 2
SYMATTR InstName V1
SYMATTR Value 12
SYMBOL voltage -16 208 R0
WINDOW 123 0 0 Left 2
WINDOW 39 0 0 Left 2
SYMATTR InstName V2
SYMATTR Value PULSE(0 3.3 0 1 0 1 1)
SYMBOL res -32 416 R0
SYMATTR InstName R1
SYMATTR Value 56k
SYMBOL res 224 368 R90
WINDOW 0 0 56 VBottom 2
WINDOW 3 32 56 VTop 2
SYMATTR InstName R2
SYMATTR Value 91k
SYMBOL npn 432 -16 R0
SYMATTR InstName Q1
SYMBOL pnp 432 336 M180
SYMATTR InstName Q2
SYMBOL res 480 144 R90
WINDOW 0 0 56 VBottom 2
WINDOW 3 32 56 VTop 2
SYMATTR InstName R3
SYMATTR Value 1k
SYMBOL current 736 240 R0
WINDOW 123 0 0 Left 2
WINDOW 39 0 0 Left 2
SYMATTR InstName I1
SYMATTR Value PULSE(100m -100m 0 10µ 10µ 1m 2m)
TEXT -274 568 Left 2 !.tran 1s
